lv-network-models/network_10/Feeder_5/Lines.txt
New Line.LINE1 Bus1=1 Bus2=2 phases=3 Linecode=3c_300_SAC_XC Length=0.76971 Units=m
New Line.LINE2 Bus1=2 Bus2=3 phases=3 Linecode=3c_300_SAC_XC Length=0.071175 Units=m
New Line.LINE3 Bus1=3 Bus2=4 phases=3 Linecode=3c_300_SAC_XC Length=0.071281 Units=m
New Line.LINE4 Bus1=4 Bus2=5 phases=3 Linecode=3c_300_SAC_XC Length=0.070711 Units=m
New Line.LINE5 Bus1=5 Bus2=6 phases=3 Linecode=3c_300_SAC_XC Length=0.071029 Units=m
New Line.LINE6 Bus1=6 Bus2=7 phases=3 Linecode=3c_300_SAC_XC Length=0.071588 Units=m
New Line.LINE7 Bus1=7 Bus2=8 phases=3 Linecode=3c_300_SAC_XC Length=0.071309 Units=m
New Line.LINE8 Bus1=8 Bus2=9 phases=3 Linecode=3c_300_SAC_XC Length=0.071176 Units=m
New Line.LINE9 Bus1=9 Bus2=10 phases=3 Linecode=3c_300_SAC_XC Length=0.070456 Units=m
New Line.LINE10 Bus1=10 Bus2=11 phases=3 Linecode=3c_300_SAC_XC Length=0.73721 Units=m
New Line.LINE11 Bus1=11 Bus2=12 phases=3 Linecode=3c_300_SAC_XC Length=1.7693 Units=m
New Line.LINE12 Bus1=12 Bus2=13 phases=3 Linecode=3c_300_SAC_XC Length=0.18318 Units=m
New Line.LINE13 Bus1=13 Bus2=14 phases=3 Linecode=3c_300_SAC_XC Length=0.18253 Units=m
New Line.LINE14 Bus1=14 Bus2=15 phases=3 Linecode=3c_300_SAC_XC Length=0.18246 Units=m
New Line.LINE15 Bus1=15 Bus2=16 phases=3 Linecode=3c_300_SAC_XC Length=0.18308 Units=m
New Line.LINE16 Bus1=16 Bus2=17 phases=3 Linecode=3c_300_SAC_XC Length=0.18217 Units=m
New Line.LINE17 Bus1=17 Bus2=18 phases=3 Linecode=3c_300_SAC_XC Length=0.18318 Units=m
New Line.LINE18 Bus1=18 Bus2=19 phases=3 Linecode=3c_300_SAC_XC Length=0.18301 Units=m
New Line.LINE19 Bus1=19 Bus2=20 phases=3 Linecode=3c_300_SAC_XC Length=0.1818 Units=m
New Line.LINE20 Bus1=20 Bus2=21 phases=3 Linecode=3c_300_SAC_XC Length=1.3146 Units=m
New Line.LINE21 Bus1=21 Bus2=22 phases=3 Linecode=3c_300_SAC_XC Length=1.5617 Units=m
New Line.LINE22 Bus1=22 Bus2=23 phases=3 Linecode=3c_300_SAC_XC Length=0.88888 Units=m
New Line.LINE23 Bus1=23 Bus2=24 phases=3 Linecode=3c_300_SAC_XC Length=1.1934 Units=m
New Line.LINE24 Bus1=24 Bus2=25 phases=3 Linecode=3c_300_SAC_XC Length=0.85425 Units=m
New Line.LINE25 Bus1=25 Bus2=26 phases=3 Linecode=3c_300_SAC_XC Length=1.6709 Units=m
New Line.LINE26 Bus1=26 Bus2=27 phases=3 Linecode=3c_300_SAC_XC Length=1.2943 Units=m
New Line.LINE27 Bus1=27 Bus2=28 phases=3 Linecode=3c_300_SAC_XC Length=7.4299 Units=m
New Line.LINE28 Bus1=28 Bus2=29 phases=3 Linecode=3c_300_SAC_XC Length=9.8894 Units=m
New Line.LINE29 Bus1=29 Bus2=30 phases=3 Linecode=4c_300_SAC Length=2.6486 Units=m
New Line.LINE30 Bus1=30 Bus2=31 phases=3 Linecode=4c_300_SAC Length=0.16603 Units=m
New Line.LINE31 Bus1=31 Bus2=32 phases=3 Linecode=4c_300_SAC Length=0.11455 Units=m
New Line.LINE32 Bus1=32 Bus2=33 phases=3 Linecode=4c_300_SAC Length=0.14459 Units=m
New Line.LINE33 Bus1=33 Bus2=34 phases=3 Linecode=4c_300_SAC Length=0.049738 Units=m
New Line.LINE34 Bus1=34 Bus2=35 phases=3 Linecode=4c_300_SAC Length=0.098434 Units=m
New Line.LINE35 Bus1=35 Bus2=36 phases=3 Linecode=4c_300_SAC Length=0.13223 Units=m
New Line.LINE36 Bus1=36 Bus2=37 phases=3 Linecode=4c_300_SAC Length=0.067066 Units=m
New Line.LINE37 Bus1=37 Bus2=38 phases=3 Linecode=4c_300_SAC Length=0.082202 Units=m
New Line.LINE38 Bus1=38 Bus2=39 phases=3 Linecode=4c_300_SAC Length=0.092972 Units=m
New Line.LINE39 Bus1=39 Bus2=40 phases=3 Linecode=4c_300_SAC Length=0.092591 Units=m
New Line.LINE40 Bus1=40 Bus2=41 phases=3 Linecode=4c_300_SAC Length=0.11341 Units=m
New Line.LINE41 Bus1=41 Bus2=42 phases=3 Linecode=4c_300_SAC Length=0.13406 Units=m
New Line.LINE42 Bus1=42 Bus2=43 phases=3 Linecode=4c_300_SAC Length=0.14982 Units=m
New Line.LINE43 Bus1=43 Bus2=44 phases=3 Linecode=4c_300_SAC Length=0.13252 Units=m
New Line.LINE44 Bus1=44 Bus2=45 phases=3 Linecode=4c_300_SAC Length=0.57714 Units=m
New Line.LINE45 Bus1=45 Bus2=46 phases=3 Linecode=4c_300_SAC Length=0.563 Units=m
New Line.LINE46 Bus1=46 Bus2=47 phases=3 Linecode=4c_300_SAC Length=0.45674 Units=m
New Line.LINE47 Bus1=47 Bus2=48 phases=3 Linecode=4c_300_SAC Length=0.3907 Units=m
New Line.LINE48 Bus1=48 Bus2=49 phases=3 Linecode=4c_.5 Length=0.2101 Units=m
New Line.LINE49 Bus1=49 Bus2=50 phases=3 Linecode=4c_.5 Length=0.26337 Units=m
New Line.LINE50 Bus1=50 Bus2=51 phases=3 Linecode=4c_.5 Length=6.2219 Units=m
New Line.LINE51 Bus1=51 Bus2=52 phases=3 Linecode=4c_.5 Length=0.039925 Units=m
New Line.LINE52 Bus1=52 Bus2=53 phases=3 Linecode=4c_.5 Length=0.044102 Units=m
New Line.LINE53 Bus1=53 Bus2=54 phases=3 Linecode=4c_.5 Length=0.036797 Units=m
New Line.LINE54 Bus1=54 Bus2=55 phases=3 Linecode=4c_.5 Length=0.037162 Units=m
New Line.LINE55 Bus1=55 Bus2=56 phases=3 Linecode=4c_.5 Length=0.031321 Units=m
New Line.LINE56 Bus1=56 Bus2=57 phases=3 Linecode=4c_.5 Length=0.042013 Units=m
New Line.LINE57 Bus1=57 Bus2=58 phases=3 Linecode=4c_.5 Length=0.05824 Units=m
New Line.LINE58 Bus1=58 Bus2=59 phases=3 Linecode=4c_.5 Length=3.4854 Units=m
New Line.LINE59 Bus1=59 Bus2=60 phases=3 Linecode=4_PC Length=0.56039 Units=m
New Line.LINE60 Bus1=59 Bus2=61 phases=3 Linecode=4c_.5 Length=2.0964 Units=m
New Line.LINE61 Bus1=60 Bus2=62 phases=3 Linecode=4_PC Length=0.30725 Units=m
New Line.LINE62 Bus1=61 Bus2=63 phases=3 Linecode=4c_.5 Length=0.92946 Units=m
New Line.LINE63 Bus1=62 Bus2=64 phases=3 Linecode=4_PC Length=0.25495 Units=m
New Line.LINE64 Bus1=63 Bus2=65 phases=3 Linecode=3c_120 Length=0.28616 Units=m
New Line.LINE65 Bus1=63 Bus2=66 phases=3 Linecode=4c_.5 Length=0.29706 Units=m
New Line.LINE66 Bus1=64 Bus2=67 phases=3 Linecode=4_PC Length=0.17804 Units=m
New Line.LINE67 Bus1=65 Bus2=68 phases=3 Linecode=3c_120 Length=0.11385 Units=m
New Line.LINE68 Bus1=66 Bus2=69 phases=3 Linecode=4c_.5 Length=8.4739 Units=m
New Line.LINE69 Bus1=67 Bus2=70 phases=3 Linecode=4_PC Length=0.1815 Units=m
New Line.LINE70 Bus1=68 Bus2=71 phases=3 Linecode=3c_120 Length=0.14903 Units=m
New Line.LINE71 Bus1=69 Bus2=72 phases=3 Linecode=4c_.5 Length=6.959 Units=m
New Line.LINE72 Bus1=70 Bus2=73 phases=3 Linecode=4_PC Length=0.25318 Units=m
New Line.LINE73 Bus1=71 Bus2=74 phases=3 Linecode=3c_120 Length=0.34314 Units=m
New Line.LINE74 Bus1=72 Bus2=75 phases=3 Linecode=4c_.5 Length=8.804 Units=m
New Line.LINE75 Bus1=72 Bus2=76 phases=3 Linecode=2c_.007 Length=0.1986 Units=m
New Line.LINE76 Bus1=73 Bus2=77 phases=3 Linecode=4_PC Length=0.27295 Units=m
New Line.LINE77 Bus1=74 Bus2=78 phases=3 Linecode=3c_120 Length=0.099479 Units=m
New Line.LINE78 Bus1=75 Bus2=79 phases=3 Linecode=4c_.5 Length=6.9545 Units=m
New Line.LINE79 Bus1=76 Bus2=80 phases=3 Linecode=2c_.007 Length=0.080624 Units=m
New Line.LINE80 Bus1=77 Bus2=81 phases=3 Linecode=4_PC Length=0.87406 Units=m
New Line.LINE81 Bus1=78 Bus2=82 phases=3 Linecode=3c_120 Length=0.11975 Units=m
New Line.LINE82 Bus1=79 Bus2=83 phases=3 Linecode=4c_.5 Length=0.24571 Units=m
New Line.LINE83 Bus1=80 Bus2=84 phases=3 Linecode=2c_.007 Length=0.1005 Units=m
New Line.LINE84 Bus1=81 Bus2=85 phases=3 Linecode=4_PC Length=1.5106 Units=m
New Line.LINE85 Bus1=82 Bus2=86 phases=3 Linecode=3c_120 Length=0.13657 Units=m
New Line.LINE86 Bus1=83 Bus2=87 phases=3 Linecode=4c_.5 Length=0.49953 Units=m
New Line.LINE87 Bus1=83 Bus2=88 phases=3 Linecode=3c_300_SAC_XC Length=0.038277 Units=m
New Line.LINE88 Bus1=84 Bus2=89 phases=3 Linecode=2c_.007 Length=0.1253 Units=m
New Line.LINE89 Bus1=85 Bus2=90 phases=3 Linecode=4_PC Length=0.31622 Units=m
New Line.LINE90 Bus1=86 Bus2=91 phases=3 Linecode=3c_120 Length=0.23056 Units=m
New Line.LINE91 Bus1=87 Bus2=92 phases=3 Linecode=4c_.5 Length=0.35324 Units=m
New Line.LINE92 Bus1=88 Bus2=93 phases=3 Linecode=3c_300_SAC_XC Length=0.22652 Units=m
New Line.LINE93 Bus1=89 Bus2=94 phases=3 Linecode=2c_.007 Length=3.0957 Units=m
New Line.LINE94 Bus1=91 Bus2=95 phases=3 Linecode=3c_120 Length=0.18118 Units=m
New Line.LINE95 Bus1=92 Bus2=96 phases=3 Linecode=4c_.5 Length=0.23411 Units=m
New Line.LINE96 Bus1=93 Bus2=97 phases=3 Linecode=3c_300_SAC_XC Length=0.11421 Units=m
New Line.LINE97 Bus1=94 Bus2=98 phases=3 Linecode=2c_.007 Length=0.068308 Units=m
New Line.LINE98 Bus1=96 Bus2=99 phases=3 Linecode=4c_.5 Length=0.23087 Units=m
New Line.LINE99 Bus1=97 Bus2=100 phases=3 Linecode=3c_300_SAC_XC Length=0.11883 Units=m
New Line.LINE100 Bus1=98 Bus2=101 phases=3 Linecode=2c_.007 Length=0.03759 Units=m
New Line.LINE101 Bus1=99 Bus2=102 phases=3 Linecode=4c_.5 Length=0.25 Units=m
New Line.LINE102 Bus1=100 Bus2=103 phases=3 Linecode=3c_300_SAC_XC Length=0.10308 Units=m
New Line.LINE103 Bus1=101 Bus2=104 phases=3 Linecode=2c_.007 Length=0.087321 Units=m
New Line.LINE104 Bus1=102 Bus2=105 phases=3 Linecode=4c_.5 Length=0.19606 Units=m
New Line.LINE105 Bus1=103 Bus2=106 phases=3 Linecode=3c_300_SAC_XC Length=0.087783 Units=m
New Line.LINE106 Bus1=104 Bus2=107 phases=3 Linecode=2c_.007 Length=0.31016 Units=m
New Line.LINE107 Bus1=105 Bus2=108 phases=3 Linecode=4c_.5 Length=0.78995 Units=m
New Line.LINE108 Bus1=106 Bus2=109 phases=3 Linecode=3c_300_SAC_XC Length=0.11122 Units=m
New Line.LINE109 Bus1=107 Bus2=110 phases=3 Linecode=4_PC Length=0.22192 Units=m
New Line.LINE110 Bus1=108 Bus2=111 phases=3 Linecode=4c_.5 Length=0.75667 Units=m
New Line.LINE111 Bus1=109 Bus2=112 phases=3 Linecode=3c_300_SAC_XC Length=0.085288 Units=m
New Line.LINE112 Bus1=110 Bus2=113 phases=3 Linecode=4_PC Length=0.04827 Units=m
New Line.LINE113 Bus1=111 Bus2=114 phases=3 Linecode=4c_.5 Length=1.8361 Units=m
New Line.LINE114 Bus1=112 Bus2=115 phases=3 Linecode=3c_300_SAC_XC Length=0.11968 Units=m
New Line.LINE115 Bus1=113 Bus2=116 phases=3 Linecode=4_PC Length=0.045397 Units=m
New Line.LINE116 Bus1=114 Bus2=117 phases=3 Linecode=3c_300_SAC_ASN Length=9.9833 Units=m
New Line.LINE117 Bus1=115 Bus2=118 phases=3 Linecode=3c_300_SAC_XC Length=1.6978 Units=m
New Line.LINE118 Bus1=116 Bus2=119 phases=3 Linecode=4_PC Length=2.6255 Units=m
New Line.LINE119 Bus1=117 Bus2=120 phases=3 Linecode=4c_.5 Length=3.9504 Units=m
New Line.LINE120 Bus1=119 Bus2=121 phases=3 Linecode=4_PC Length=0.10981 Units=m
New Line.LINE121 Bus1=120 Bus2=122 phases=3 Linecode=4c_.5 Length=15.3344 Units=m
New Line.LINE122 Bus1=121 Bus2=123 phases=3 Linecode=4_PC Length=0.15145 Units=m
New Line.LINE123 Bus1=122 Bus2=124 phases=3 Linecode=4c_.5 Length=5.435 Units=m
New Line.LINE124 Bus1=123 Bus2=125 phases=3 Linecode=4_PC Length=0.13411 Units=m
New Line.LINE125 Bus1=124 Bus2=126 phases=3 Linecode=4c_.5 Length=4.4631 Units=m
New Line.LINE126 Bus1=125 Bus2=127 phases=3 Linecode=4_PC Length=0.14534 Units=m
New Line.LINE127 Bus1=126 Bus2=128 phases=3 Linecode=4c_.5 Length=5.8667 Units=m
New Line.LINE128 Bus1=127 Bus2=129 phases=3 Linecode=4_PC Length=0.13929 Units=m
New Line.LINE129 Bus1=128 Bus2=130 phases=3 Linecode=4c_.5 Length=12.4059 Units=m
New Line.LINE130 Bus1=129 Bus2=131 phases=3 Linecode=4_PC Length=0.19587 Units=m
New Line.LINE131 Bus1=130 Bus2=132 phases=3 Linecode=4c_.5 Length=0.75942 Units=m
New Line.LINE132 Bus1=131 Bus2=133 phases=3 Linecode=4_PC Length=0.14948 Units=m
New Line.LINE133 Bus1=132 Bus2=134 phases=3 Linecode=4c_.5 Length=0.4209 Units=m
New Line.LINE134 Bus1=133 Bus2=135 phases=3 Linecode=4_PC Length=0.22779 Units=m
New Line.LINE135 Bus1=134 Bus2=136 phases=3 Linecode=4c_.5 Length=0.37448 Units=m
New Line.LINE136 Bus1=135 Bus2=137 phases=3 Linecode=4_PC Length=0.21883 Units=m
New Line.LINE137 Bus1=136 Bus2=138 phases=3 Linecode=4c_.5 Length=0.27775 Units=m
New Line.LINE138 Bus1=137 Bus2=139 phases=3 Linecode=4_PC Length=0.13568 Units=m
New Line.LINE139 Bus1=138 Bus2=140 phases=3 Linecode=4c_.5 Length=0.21153 Units=m
New Line.LINE140 Bus1=139 Bus2=141 phases=3 Linecode=4_PC Length=0.1666 Units=m
New Line.LINE141 Bus1=140 Bus2=142 phases=3 Linecode=4c_.5 Length=0.25155 Units=m
New Line.LINE142 Bus1=141 Bus2=143 phases=3 Linecode=4_PC Length=0.21346 Units=m
New Line.LINE143 Bus1=142 Bus2=144 phases=3 Linecode=4c_.5 Length=7.6159 Units=m
New Line.LINE144 Bus1=144 Bus2=145 phases=3 Linecode=4c_.5 Length=0.30265 Units=m
New Line.LINE145 Bus1=145 Bus2=146 phases=3 Linecode=4c_300_SAC Length=0.51185 Units=m
New Line.LINE146 Bus1=146 Bus2=147 phases=3 Linecode=4c_120_SAC Length=0.15692 Units=m
New Line.LINE147 Bus1=146 Bus2=148 phases=3 Linecode=4c_300_SAC Length=0.69019 Units=m
New Line.LINE148 Bus1=147 Bus2=149 phases=3 Linecode=4c_120_SAC Length=0.065369 Units=m
New Line.LINE149 Bus1=148 Bus2=150 phases=3 Linecode=4c_300_SAC Length=1.5276 Units=m
New Line.LINE150 Bus1=149 Bus2=151 phases=3 Linecode=4c_120_SAC Length=0.050249 Units=m
New Line.LINE151 Bus1=150 Bus2=152 phases=3 Linecode=4c_300_SAC Length=1.4609 Units=m
New Line.LINE152 Bus1=151 Bus2=153 phases=3 Linecode=4c_120_SAC Length=0.062201 Units=m
New Line.LINE153 Bus1=152 Bus2=154 phases=3 Linecode=4c_300_SAC Length=0.37576 Units=m
New Line.LINE154 Bus1=153 Bus2=155 phases=3 Linecode=4c_120_SAC Length=0.098955 Units=m
New Line.LINE155 Bus1=154 Bus2=156 phases=3 Linecode=4c_300_SAC Length=0.19554 Units=m
New Line.LINE156 Bus1=155 Bus2=157 phases=3 Linecode=4c_120_SAC Length=0.087367 Units=m
New Line.LINE157 Bus1=156 Bus2=158 phases=3 Linecode=4c_300_SAC Length=0.46011 Units=m
New Line.LINE158 Bus1=157 Bus2=159 phases=3 Linecode=4c_120_SAC Length=0.28271 Units=m
New Line.LINE159 Bus1=158 Bus2=160 phases=3 Linecode=4c_300_SAC Length=0.20516 Units=m
New Line.LINE160 Bus1=159 Bus2=161 phases=3 Linecode=4c_120_SAC Length=0.11353 Units=m
New Line.LINE161 Bus1=160 Bus2=162 phases=3 Linecode=4c_300_SAC Length=0.13596 Units=m
New Line.LINE162 Bus1=161 Bus2=163 phases=3 Linecode=4c_120_SAC Length=0.13995 Units=m
New Line.LINE163 Bus1=162 Bus2=164 phases=3 Linecode=4c_300_SAC Length=0.25711 Units=m
New Line.LINE164 Bus1=163 Bus2=165 phases=3 Linecode=4c_120_SAC Length=0.55462 Units=m
New Line.LINE165 Bus1=164 Bus2=166 phases=3 Linecode=4c_300_SAC Length=1.017 Units=m
New Line.LINE166 Bus1=165 Bus2=167 phases=3 Linecode=4c_120_SAC Length=0.087864 Units=m
New Line.LINE167 Bus1=166 Bus2=168 phases=3 Linecode=4c_300_SAC Length=2.8104 Units=m
New Line.LINE168 Bus1=167 Bus2=169 phases=3 Linecode=4c_120_SAC Length=0.071176 Units=m
New Line.LINE169 Bus1=168 Bus2=170 phases=3 Linecode=4_PC Length=1.7403 Units=m
New Line.LINE170 Bus1=168 Bus2=171 phases=3 Linecode=4c_.25_UA Length=2.4401 Units=m
New Line.LINE171 Bus1=168 Bus2=172 phases=3 Linecode=4c_.25_UA Length=2.4401 Units=m
New Line.LINE172 Bus1=169 Bus2=173 phases=3 Linecode=4c_120_SAC Length=0.072007 Units=m
New Line.LINE173 Bus1=170 Bus2=174 phases=3 Linecode=4_PC Length=1.4118 Units=m
New Line.LINE174 Bus1=171 Bus2=175 phases=3 Linecode=4c_.25_UA Length=6.4698 Units=m
New Line.LINE175 Bus1=171 Bus2=176 phases=3 Linecode=4c_.25_UA Length=6.4698 Units=m
New Line.LINE176 Bus1=173 Bus2=177 phases=3 Linecode=4c_120_SAC Length=0.086208 Units=m
New Line.LINE177 Bus1=175 Bus2=178 phases=3 Linecode=4c_.06 Length=0.26485 Units=m
New Line.LINE178 Bus1=175 Bus2=179 phases=3 Linecode=4c_.25_UA Length=7.5117 Units=m
New Line.LINE179 Bus1=175 Bus2=180 phases=3 Linecode=4c_.25_UA Length=7.5117 Units=m
New Line.LINE180 Bus1=177 Bus2=181 phases=3 Linecode=4c_120_SAC Length=0.11563 Units=m
New Line.LINE181 Bus1=178 Bus2=182 phases=3 Linecode=4c_.06 Length=0.302 Units=m
New Line.LINE182 Bus1=179 Bus2=183 phases=3 Linecode=2c_.0225 Length=0.31797 Units=m
New Line.LINE183 Bus1=179 Bus2=184 phases=3 Linecode=4c_.25_UA Length=9.9641 Units=m
New Line.LINE184 Bus1=179 Bus2=185 phases=3 Linecode=4c_.25_UA Length=9.9641 Units=m
New Line.LINE185 Bus1=181 Bus2=186 phases=3 Linecode=4c_120_SAC Length=0.12542 Units=m
New Line.LINE186 Bus1=182 Bus2=187 phases=3 Linecode=4c_.06 Length=0.247 Units=m
New Line.LINE187 Bus1=183 Bus2=188 phases=3 Linecode=2c_.0225 Length=0.14841 Units=m
New Line.LINE188 Bus1=184 Bus2=189 phases=3 Linecode=4c_.25_UA Length=1.3877 Units=m
New Line.LINE189 Bus1=184 Bus2=190 phases=3 Linecode=4c_.25_UA Length=1.3058 Units=m
New Line.LINE190 Bus1=186 Bus2=191 phases=3 Linecode=4c_120_SAC Length=0.14361 Units=m
New Line.LINE191 Bus1=187 Bus2=192 phases=3 Linecode=4c_.06 Length=0.192 Units=m
New Line.LINE192 Bus1=188 Bus2=193 phases=3 Linecode=2c_.0225 Length=0.074431 Units=m
New Line.LINE193 Bus1=189 Bus2=194 phases=3 Linecode=4c_.25_UA Length=0.97209 Units=m
New Line.LINE194 Bus1=189 Bus2=195 phases=3 Linecode=4c_.25_UA Length=0.97209 Units=m
New Line.LINE195 Bus1=189 Bus2=196 phases=3 Linecode=4c_.25_UA Length=0.081909 Units=m
New Line.LINE196 Bus1=190 Bus2=197 phases=3 Linecode=2c_.0225 Length=0.82265 Units=m
New Line.LINE197 Bus1=191 Bus2=198 phases=3 Linecode=4c_120_SAC Length=0.17407 Units=m
New Line.LINE198 Bus1=192 Bus2=199 phases=3 Linecode=4c_.06 Length=0.30634 Units=m
New Line.LINE199 Bus1=193 Bus2=200 phases=3 Linecode=2c_.0225 Length=0.12462 Units=m
New Line.LINE200 Bus1=194 Bus2=201 phases=3 Linecode=4c_.25_UA Length=1.3307 Units=m
New Line.LINE201 Bus1=194 Bus2=202 phases=3 Linecode=4c_300_SAC Length=0.8118 Units=m
New Line.LINE202 Bus1=194 Bus2=203 phases=3 Linecode=4c_.25_UA Length=1.3307 Units=m
New Line.LINE203 Bus1=197 Bus2=204 phases=3 Linecode=2c_.0225 Length=0.24284 Units=m
New Line.LINE204 Bus1=198 Bus2=205 phases=3 Linecode=4c_120_SAC Length=0.34636 Units=m
New Line.LINE205 Bus1=199 Bus2=206 phases=3 Linecode=4c_.06 Length=0.19747 Units=m
New Line.LINE206 Bus1=200 Bus2=207 phases=3 Linecode=2c_.0225 Length=0.113 Units=m
New Line.LINE207 Bus1=201 Bus2=208 phases=3 Linecode=4c_.25_UA Length=0.5916 Units=m
New Line.LINE208 Bus1=201 Bus2=209 phases=3 Linecode=4c_.25_UA Length=0.5916 Units=m
New Line.LINE209 Bus1=202 Bus2=210 phases=3 Linecode=4c_300_SAC Length=0.63428 Units=m
New Line.LINE210 Bus1=204 Bus2=211 phases=3 Linecode=2c_.0225 Length=0.26483 Units=m
New Line.LINE211 Bus1=205 Bus2=212 phases=3 Linecode=4c_120_SAC Length=0.21915 Units=m
New Line.LINE212 Bus1=206 Bus2=213 phases=3 Linecode=4c_.06 Length=0.22 Units=m
New Line.LINE213 Bus1=207 Bus2=214 phases=3 Linecode=2c_.0225 Length=0.134 Units=m
New Line.LINE214 Bus1=208 Bus2=215 phases=3 Linecode=4c_.25_UA Length=0.71661 Units=m
New Line.LINE215 Bus1=208 Bus2=216 phases=3 Linecode=4c_.25_UA Length=0.71661 Units=m
New Line.LINE216 Bus1=210 Bus2=217 phases=3 Linecode=4c_300_SAC Length=0.78503 Units=m
New Line.LINE217 Bus1=211 Bus2=218 phases=3 Linecode=2c_.0225 Length=0.38144 Units=m
New Line.LINE218 Bus1=212 Bus2=219 phases=3 Linecode=4c_.12 Length=0.99683 Units=m
New Line.LINE219 Bus1=213 Bus2=220 phases=3 Linecode=4c_.06 Length=0.25931 Units=m
New Line.LINE220 Bus1=214 Bus2=221 phases=3 Linecode=2c_.0225 Length=0.1672 Units=m
New Line.LINE221 Bus1=215 Bus2=222 phases=3 Linecode=4c_.25_UA Length=1.7994 Units=m
New Line.LINE222 Bus1=215 Bus2=223 phases=3 Linecode=4c_.25_UA Length=1.7994 Units=m
New Line.LINE223 Bus1=217 Bus2=224 phases=3 Linecode=4c_300_SAC Length=0.35032 Units=m
New Line.LINE224 Bus1=218 Bus2=225 phases=3 Linecode=2c_.0225 Length=0.42809 Units=m
New Line.LINE225 Bus1=219 Bus2=226 phases=3 Linecode=4c_.12 Length=0.75397 Units=m
New Line.LINE226 Bus1=220 Bus2=227 phases=3 Linecode=4c_.06 Length=0.31113 Units=m
New Line.LINE227 Bus1=221 Bus2=228 phases=3 Linecode=2c_.0225 Length=0.36022 Units=m
New Line.LINE228 Bus1=222 Bus2=229 phases=3 Linecode=4c_.25_UA Length=0.84182 Units=m
New Line.LINE229 Bus1=222 Bus2=230 phases=3 Linecode=4c_.25_UA Length=0.84182 Units=m
New Line.LINE230 Bus1=224 Bus2=231 phases=3 Linecode=4c_300_SAC Length=1.5735 Units=m
New Line.LINE231 Bus1=225 Bus2=232 phases=3 Linecode=2c_.0225 Length=0.29954 Units=m
New Line.LINE232 Bus1=226 Bus2=233 phases=3 Linecode=4c_.12 Length=0.62514 Units=m
New Line.LINE233 Bus1=227 Bus2=234 phases=3 Linecode=4c_.06 Length=0.2736 Units=m
New Line.LINE234 Bus1=228 Bus2=235 phases=3 Linecode=2c_.0225 Length=0.25917 Units=m
New Line.LINE235 Bus1=229 Bus2=236 phases=3 Linecode=4c_.25_UA Length=0.83513 Units=m
New Line.LINE236 Bus1=229 Bus2=237 phases=3 Linecode=4c_.25_UA Length=0.83513 Units=m
New Line.LINE237 Bus1=232 Bus2=238 phases=3 Linecode=2c_.0225 Length=0.40455 Units=m
New Line.LINE238 Bus1=233 Bus2=239 phases=3 Linecode=4c_.12 Length=6.7129 Units=m
New Line.LINE239 Bus1=234 Bus2=240 phases=3 Linecode=4c_.06 Length=0.3689 Units=m
New Line.LINE240 Bus1=235 Bus2=241 phases=3 Linecode=2c_.0225 Length=0.25316 Units=m
New Line.LINE241 Bus1=236 Bus2=242 phases=3 Linecode=4c_.25_UA Length=1.1696 Units=m
New Line.LINE242 Bus1=236 Bus2=243 phases=3 Linecode=4c_.25_UA Length=1.1696 Units=m
New Line.LINE243 Bus1=238 Bus2=244 phases=3 Linecode=2c_.0225 Length=0.34698 Units=m
New Line.LINE244 Bus1=239 Bus2=245 phases=3 Linecode=4c_.12 Length=0.45796 Units=m
New Line.LINE245 Bus1=239 Bus2=246 phases=3 Linecode=4c_.12 Length=2.5415 Units=m
New Line.LINE246 Bus1=240 Bus2=247 phases=3 Linecode=4c_.06 Length=0.23514 Units=m
New Line.LINE247 Bus1=241 Bus2=248 phases=3 Linecode=2c_.0225 Length=0.22128 Units=m
New Line.LINE248 Bus1=242 Bus2=249 phases=3 Linecode=4c_.25_UA Length=0.38931 Units=m
New Line.LINE249 Bus1=242 Bus2=250 phases=3 Linecode=4c_.25_UA Length=0.38931 Units=m
New Line.LINE250 Bus1=244 Bus2=251 phases=3 Linecode=2c_.0225 Length=0.32262 Units=m
New Line.LINE251 Bus1=245 Bus2=252 phases=3 Linecode=4c_.12 Length=0.19 Units=m
New Line.LINE252 Bus1=246 Bus2=253 phases=3 Linecode=4c_.12 Length=6.98 Units=m
New Line.LINE253 Bus1=247 Bus2=254 phases=3 Linecode=4c_.06 Length=0.603 Units=m
New Line.LINE254 Bus1=248 Bus2=255 phases=3 Linecode=2c_.0225 Length=0.33071 Units=m
New Line.LINE255 Bus1=249 Bus2=256 phases=3 Linecode=4c_.25_UA Length=1.1231 Units=m
New Line.LINE256 Bus1=249 Bus2=257 phases=3 Linecode=4c_.25_UA Length=1.1231 Units=m
New Line.LINE257 Bus1=251 Bus2=258 phases=3 Linecode=2c_.0225 Length=0.2793 Units=m
New Line.LINE258 Bus1=252 Bus2=259 phases=3 Linecode=4c_.12 Length=0.26 Units=m
New Line.LINE259 Bus1=253 Bus2=260 phases=3 Linecode=4c_.12 Length=0.55328 Units=m
New Line.LINE260 Bus1=253 Bus2=261 phases=3 Linecode=4c_.12 Length=0.84866 Units=m
New Line.LINE261 Bus1=255 Bus2=262 phases=3 Linecode=2c_.0225 Length=0.329 Units=m
New Line.LINE262 Bus1=256 Bus2=263 phases=3 Linecode=4c_.25_UA Length=0.62669 Units=m
New Line.LINE263 Bus1=256 Bus2=264 phases=3 Linecode=4c_.25_UA Length=0.62669 Units=m
New Line.LINE264 Bus1=259 Bus2=265 phases=3 Linecode=4c_.12 Length=0.24181 Units=m
New Line.LINE265 Bus1=261 Bus2=266 phases=3 Linecode=185_SAC_PC Length=0.945 Units=m
New Line.LINE266 Bus1=261 Bus2=267 phases=3 Linecode=4c_.12 Length=0.95494 Units=m
New Line.LINE267 Bus1=262 Bus2=268 phases=3 Linecode=2c_.0225 Length=0.274 Units=m
New Line.LINE268 Bus1=263 Bus2=269 phases=3 Linecode=4c_.25_UA Length=0.47408 Units=m
New Line.LINE269 Bus1=263 Bus2=270 phases=3 Linecode=4c_.25_UA Length=0.47408 Units=m
New Line.LINE270 Bus1=266 Bus2=271 phases=3 Linecode=25_SAC_XC Length=22.0878 Units=m
New Line.LINE271 Bus1=266 Bus2=272 phases=3 Linecode=25_SAC_XC Length=17.8821 Units=m
New Line.LINE272 Bus1=266 Bus2=273 phases=3 Linecode=25_SAC_XC Length=17.8821 Units=m
New Line.LINE273 Bus1=266 Bus2=274 phases=3 Linecode=25_SAC_XC Length=17.8821 Units=m
New Line.LINE274 Bus1=266 Bus2=275 phases=3 Linecode=25_SAC_XC Length=17.8821 Units=m
New Line.LINE275 Bus1=266 Bus2=276 phases=3 Linecode=25_SAC_XC Length=17.8821 Units=m
New Line.LINE276 Bus1=267 Bus2=277 phases=3 Linecode=2c_.007 Length=0.18278 Units=m
New Line.LINE277 Bus1=267 Bus2=278 phases=3 Linecode=4c_.12 Length=4.1301 Units=m
New Line.LINE278 Bus1=268 Bus2=279 phases=3 Linecode=2c_.0225 Length=5.2411 Units=m
New Line.LINE279 Bus1=269 Bus2=280 phases=3 Linecode=4c_.25_UA Length=6.3546 Units=m
New Line.LINE280 Bus1=269 Bus2=281 phases=3 Linecode=4c_.25_UA Length=6.3546 Units=m
New Line.LINE281 Bus1=277 Bus2=282 phases=3 Linecode=2c_.007 Length=0.165 Units=m
New Line.LINE282 Bus1=278 Bus2=283 phases=3 Linecode=4c_.12 Length=9.726 Units=m
New Line.LINE283 Bus1=279 Bus2=284 phases=3 Linecode=4_XSC Length=2.7373 Units=m
New Line.LINE284 Bus1=280 Bus2=285 phases=3 Linecode=4c_.25_UA Length=11.1282 Units=m
New Line.LINE285 Bus1=280 Bus2=286 phases=3 Linecode=4c_.25_UA Length=11.1282 Units=m
New Line.LINE286 Bus1=282 Bus2=287 phases=3 Linecode=2c_.007 Length=0.19 Units=m
New Line.LINE287 Bus1=283 Bus2=288 phases=3 Linecode=4c_.12 Length=5.4572 Units=m
New Line.LINE288 Bus1=284 Bus2=289 phases=3 Linecode=4_XSC Length=0.12298 Units=m
New Line.LINE289 Bus1=285 Bus2=290 phases=3 Linecode=4c_.25_UA Length=0.86065 Units=m
New Line.LINE290 Bus1=285 Bus2=291 phases=3 Linecode=4c_.25_UA Length=0.86065 Units=m
New Line.LINE291 Bus1=287 Bus2=292 phases=3 Linecode=2c_.007 Length=0.23722 Units=m
New Line.LINE292 Bus1=288 Bus2=293 phases=3 Linecode=4c_.12 Length=4.8933 Units=m
New Line.LINE293 Bus1=289 Bus2=294 phases=3 Linecode=4_XSC Length=0.12301 Units=m
New Line.LINE294 Bus1=290 Bus2=295 phases=3 Linecode=4c_.25_UA Length=0.34112 Units=m
New Line.LINE295 Bus1=290 Bus2=296 phases=3 Linecode=4c_.25_UA Length=0.34112 Units=m
New Line.LINE296 Bus1=292 Bus2=297 phases=3 Linecode=2c_.007 Length=0.237 Units=m
New Line.LINE297 Bus1=293 Bus2=298 phases=3 Linecode=25_SAC_XC Length=16.7103 Units=m
New Line.LINE298 Bus1=293 Bus2=299 phases=3 Linecode=25_SAC_XC Length=16.7103 Units=m
New Line.LINE299 Bus1=293 Bus2=300 phases=3 Linecode=25_SAC_XC Length=16.7103 Units=m
New Line.LINE300 Bus1=293 Bus2=301 phases=3 Linecode=25_SAC_XC Length=16.7103 Units=m
New Line.LINE301 Bus1=293 Bus2=302 phases=3 Linecode=4c_.12 Length=10.4419 Units=m
New Line.LINE302 Bus1=294 Bus2=303 phases=3 Linecode=4_XSC Length=0.12218 Units=m
New Line.LINE303 Bus1=295 Bus2=304 phases=3 Linecode=4c_.25_UA Length=0.2291 Units=m
New Line.LINE304 Bus1=295 Bus2=305 phases=3 Linecode=4c_.25_UA Length=0.2291 Units=m
New Line.LINE305 Bus1=297 Bus2=306 phases=3 Linecode=2c_.007 Length=0.166 Units=m
New Line.LINE306 Bus1=302 Bus2=307 phases=3 Linecode=4c_.12 Length=4.5021 Units=m
New Line.LINE307 Bus1=303 Bus2=308 phases=3 Linecode=4_XSC Length=0.12313 Units=m
New Line.LINE308 Bus1=304 Bus2=309 phases=3 Linecode=4c_.25_UA Length=0.19556 Units=m
New Line.LINE309 Bus1=304 Bus2=310 phases=3 Linecode=4c_.25_UA Length=0.19556 Units=m
New Line.LINE310 Bus1=306 Bus2=311 phases=3 Linecode=2c_.007 Length=0.2019 Units=m
New Line.LINE311 Bus1=307 Bus2=312 phases=3 Linecode=25_SAC_XC Length=7.4638 Units=m
New Line.LINE312 Bus1=307 Bus2=313 phases=3 Linecode=4c_.12 Length=5.3093 Units=m
New Line.LINE313 Bus1=308 Bus2=314 phases=3 Linecode=4_XSC Length=0.12297 Units=m
New Line.LINE314 Bus1=309 Bus2=315 phases=3 Linecode=4c_.25_UA Length=0.23223 Units=m
New Line.LINE315 Bus1=309 Bus2=316 phases=3 Linecode=4c_.25_UA Length=0.23223 Units=m
New Line.LINE316 Bus1=314 Bus2=317 phases=3 Linecode=4_XSC Length=0.12249 Units=m
New Line.LINE317 Bus1=315 Bus2=318 phases=3 Linecode=4c_.25_UA Length=1.4805 Units=m
New Line.LINE318 Bus1=315 Bus2=319 phases=3 Linecode=4c_.25_UA Length=1.4805 Units=m
New Line.LINE319 Bus1=317 Bus2=320 phases=3 Linecode=4_XSC Length=0.12323 Units=m
New Line.LINE320 Bus1=318 Bus2=321 phases=3 Linecode=4c_.25_UA Length=1.5894 Units=m
New Line.LINE321 Bus1=318 Bus2=322 phases=3 Linecode=4c_.25_UA Length=1.5894 Units=m
New Line.LINE322 Bus1=320 Bus2=323 phases=3 Linecode=4_XSC Length=0.12254 Units=m
New Line.LINE323 Bus1=321 Bus2=324 phases=3 Linecode=4c_.25_UA Length=1.715 Units=m
New Line.LINE324 Bus1=321 Bus2=325 phases=3 Linecode=4c_.25_UA Length=1.715 Units=m
New Line.LINE325 Bus1=324 Bus2=326 phases=3 Linecode=4c_.25_UA Length=0.36188 Units=m
New Line.LINE326 Bus1=324 Bus2=327 phases=3 Linecode=4c_.25_UA Length=0.62838 Units=m
New Line.LINE327 Bus1=324 Bus2=328 phases=3 Linecode=4c_.25_UA Length=0.62838 Units=m
New Line.LINE328 Bus1=326 Bus2=329 phases=3 Linecode=4c_.25_UA Length=0.198 Units=m
New Line.LINE329 Bus1=327 Bus2=330 phases=3 Linecode=4c_.25_UA Length=1.6846 Units=m
New Line.LINE330 Bus1=327 Bus2=331 phases=3 Linecode=4c_.25_UA Length=1.6846 Units=m
New Line.LINE331 Bus1=329 Bus2=332 phases=3 Linecode=4c_.25_UA Length=0.27252 Units=m
New Line.LINE332 Bus1=330 Bus2=333 phases=3 Linecode=4c_.25_UA Length=1.1286 Units=m
New Line.LINE333 Bus1=330 Bus2=334 phases=3 Linecode=4c_.25_UA Length=1.1286 Units=m
New Line.LINE334 Bus1=332 Bus2=335 phases=3 Linecode=4c_.25_UA Length=0.18157 Units=m
New Line.LINE335 Bus1=333 Bus2=336 phases=3 Linecode=4c_.25_UA Length=8.3402 Units=m
New Line.LINE336 Bus1=333 Bus2=337 phases=3 Linecode=4c_.25_UA Length=8.3402 Units=m
New Line.LINE337 Bus1=335 Bus2=338 phases=3 Linecode=4c_.25_UA Length=0.43113 Units=m
New Line.LINE338 Bus1=336 Bus2=339 phases=3 Linecode=4c_.25_UA Length=2.0288 Units=m
New Line.LINE339 Bus1=336 Bus2=340 phases=3 Linecode=4c_.25_UA Length=2.0288 Units=m
New Line.LINE340 Bus1=338 Bus2=341 phases=3 Linecode=4c_.25_UA Length=5.2758 Units=m
New Line.LINE341 Bus1=339 Bus2=342 phases=3 Linecode=4c_.25_UA Length=0.5237 Units=m
New Line.LINE342 Bus1=339 Bus2=343 phases=3 Linecode=4c_.25_UA Length=0.5237 Units=m
New Line.LINE343 Bus1=342 Bus2=344 phases=3 Linecode=4c_.25_UA Length=0.94559 Units=m
New Line.LINE344 Bus1=342 Bus2=345 phases=3 Linecode=4c_.25_UA Length=0.94559 Units=m
New Line.LINE345 Bus1=344 Bus2=346 phases=3 Linecode=4c_.25_UA Length=0.60685 Units=m
New Line.LINE346 Bus1=344 Bus2=347 phases=3 Linecode=4c_.25_UA Length=0.60685 Units=m
New Line.LINE347 Bus1=346 Bus2=348 phases=3 Linecode=4c_.25_UA Length=0.58004 Units=m
New Line.LINE348 Bus1=346 Bus2=349 phases=3 Linecode=4c_.25_UA Length=0.58004 Units=m
New Line.LINE349 Bus1=348 Bus2=350 phases=3 Linecode=4c_.25_UA Length=0.77934 Units=m
New Line.LINE350 Bus1=348 Bus2=351 phases=3 Linecode=4c_.25_UA Length=0.77934 Units=m
New Line.LINE351 Bus1=350 Bus2=352 phases=3 Linecode=4c_.25_UA Length=0.85011 Units=m
New Line.LINE352 Bus1=350 Bus2=353 phases=3 Linecode=4c_.25_UA Length=0.85011 Units=m
New Line.LINE353 Bus1=352 Bus2=354 phases=3 Linecode=4c_.5 Length=0.39201 Units=m
New Line.LINE354 Bus1=354 Bus2=355 phases=3 Linecode=4c_.5 Length=0.42095 Units=m
New Line.LINE355 Bus1=355 Bus2=356 phases=3 Linecode=4c_.5 Length=0.51512 Units=m
New Line.LINE356 Bus1=356 Bus2=357 phases=3 Linecode=4c_.5 Length=0.38218 Units=m
New Line.LINE357 Bus1=357 Bus2=358 phases=3 Linecode=4c_.5 Length=0.31203 Units=m
New Line.LINE358 Bus1=358 Bus2=359 phases=3 Linecode=4c_.5 Length=0.34024 Units=m
New Line.LINE359 Bus1=359 Bus2=360 phases=3 Linecode=4c_.5 Length=0.21095 Units=m
New Line.LINE360 Bus1=360 Bus2=361 phases=3 Linecode=4c_.5 Length=0.22636 Units=m
New Line.LINE361 Bus1=361 Bus2=362 phases=3 Linecode=4c_.5 Length=0.20219 Units=m
New Line.LINE362 Bus1=362 Bus2=363 phases=3 Linecode=4c_.5 Length=6.8967 Units=m
New Line.LINE363 Bus1=363 Bus2=364 phases=3 Linecode=4c_.5 Length=2.3971 Units=m
New Line.LINE364 Bus1=364 Bus2=365 phases=3 Linecode=4c_.5 Length=0.70614 Units=m
New Line.LINE365 Bus1=365 Bus2=366 phases=3 Linecode=4c_.5 Length=2.0354 Units=m
New Line.LINE366 Bus1=366 Bus2=367 phases=3 Linecode=4c_.5 Length=6.1501 Units=m
New Line.LINE367 Bus1=367 Bus2=368 phases=3 Linecode=4c_.5 Length=2.5263 Units=m
New Line.LINE368 Bus1=368 Bus2=369 phases=3 Linecode=4c_.5 Length=0.13103 Units=m
New Line.LINE369 Bus1=369 Bus2=370 phases=3 Linecode=4c_.5 Length=0.18822 Units=m
New Line.LINE370 Bus1=370 Bus2=371 phases=3 Linecode=4c_.5 Length=0.16688 Units=m
New Line.LINE371 Bus1=371 Bus2=372 phases=3 Linecode=4c_.5 Length=0.13788 Units=m
New Line.LINE372 Bus1=372 Bus2=373 phases=3 Linecode=4c_.5 Length=0.15212 Units=m
New Line.LINE373 Bus1=373 Bus2=374 phases=3 Linecode=4c_.5 Length=0.20339 Units=m
New Line.LINE374 Bus1=374 Bus2=375 phases=3 Linecode=4c_.5 Length=5.1398 Units=m
New Line.LINE375 Bus1=375 Bus2=376 phases=3 Linecode=4c_.5 Length=1.6923 Units=m
New Line.LINE376 Bus1=375 Bus2=377 phases=3 Linecode=4c_.5 Length=5.1535 Units=m
New Line.LINE377 Bus1=375 Bus2=378 phases=3 Linecode=4c_.5 Length=0.01 Units=m
New Line.LINE378 Bus1=376 Bus2=379 phases=3 Linecode=4c_.5 Length=0.094068 Units=m
New Line.LINE379 Bus1=377 Bus2=380 phases=3 Linecode=4c_.5 Length=0.31236 Units=m
New Line.LINE380 Bus1=378 Bus2=381 phases=3 Linecode=4c_.5 Length=1.6475 Units=m
New Line.LINE381 Bus1=379 Bus2=382 phases=3 Linecode=4c_.5 Length=0.1128 Units=m
New Line.LINE382 Bus1=380 Bus2=383 phases=3 Linecode=4c_.5 Length=0.094047 Units=m
New Line.LINE383 Bus1=381 Bus2=384 phases=3 Linecode=4c_.5 Length=0.077929 Units=m
New Line.LINE384 Bus1=382 Bus2=385 phases=3 Linecode=4c_.5 Length=0.11549 Units=m
New Line.LINE385 Bus1=383 Bus2=386 phases=3 Linecode=4c_.5 Length=0.093814 Units=m
New Line.LINE386 Bus1=384 Bus2=387 phases=3 Linecode=4c_.5 Length=0.11809 Units=m
New Line.LINE387 Bus1=385 Bus2=388 phases=3 Linecode=4c_.5 Length=0.17363 Units=m
New Line.LINE388 Bus1=386 Bus2=389 phases=3 Linecode=4c_.5 Length=0.23844 Units=m
New Line.LINE389 Bus1=387 Bus2=390 phases=3 Linecode=4c_.5 Length=0.072532 Units=m
New Line.LINE390 Bus1=388 Bus2=391 phases=3 Linecode=4c_.5 Length=0.01 Units=m
New Line.LINE391 Bus1=388 Bus2=392 phases=3 Linecode=4c_.5 Length=0.01 Units=m
New Line.LINE392 Bus1=389 Bus2=393 phases=3 Linecode=4c_.5 Length=0.226 Units=m
New Line.LINE393 Bus1=393 Bus2=394 phases=3 Linecode=4c_.5 Length=0.25252 Units=m
New Line.LINE394 Bus1=394 Bus2=395 phases=3 Linecode=4c_.5 Length=1.6346 Units=m
New Line.LINE395 Bus1=395 Bus2=396 phases=3 Linecode=4c_.5 Length=10.6644 Units=m
New Line.LINE396 Bus1=396 Bus2=397 phases=3 Linecode=4c_.5 Length=1.8657 Units=m
New Line.LINE397 Bus1=397 Bus2=398 phases=3 Linecode=4c_.5 Length=11.4806 Units=m
New Line.LINE398 Bus1=398 Bus2=399 phases=3 Linecode=4c_.5 Length=3.1025 Units=m
New Line.LINE399 Bus1=399 Bus2=400 phases=3 Linecode=4c_.5 Length=6.4643 Units=m
New Line.LINE400 Bus1=400 Bus2=401 phases=3 Linecode=4c_.5 Length=6.6433 Units=m
New Line.LINE401 Bus1=401 Bus2=402 phases=3 Linecode=4c_.5 Length=9.4999 Units=m
New Line.LINE402 Bus1=402 Bus2=403 phases=3 Linecode=4c_.5 Length=6.1098 Units=m
New Line.LINE403 Bus1=403 Bus2=404 phases=3 Linecode=4c_.5 Length=2.385 Units=m
New Line.LINE404 Bus1=404 Bus2=405 phases=3 Linecode=4c_.5 Length=4.8684 Units=m
New Line.LINE405 Bus1=405 Bus2=406 phases=3 Linecode=4c_.5 Length=0.45307 Units=m
New Line.LINE406 Bus1=406 Bus2=407 phases=3 Linecode=4c_.5 Length=0.33151 Units=m
New Line.LINE407 Bus1=407 Bus2=408 phases=3 Linecode=4c_.5 Length=0.211 Units=m
New Line.LINE408 Bus1=408 Bus2=409 phases=3 Linecode=4c_.5 Length=0.4034 Units=m
New Line.LINE409 Bus1=409 Bus2=410 phases=3 Linecode=4c_.5 Length=0.43325 Units=m
New Line.LINE410 Bus1=410 Bus2=411 phases=3 Linecode=4c_.5 Length=0.36828 Units=m
New Line.LINE411 Bus1=411 Bus2=412 phases=3 Linecode=4c_.5 Length=0.42927 Units=m
New Line.LINE412 Bus1=412 Bus2=413 phases=3 Linecode=4c_.5 Length=0.69358 Units=m
New Line.LINE413 Bus1=413 Bus2=414 phases=3 Linecode=4c_.5 Length=0.2674 Units=m
New Line.LINE414 Bus1=414 Bus2=415 phases=3 Linecode=4c_.5 Length=0.39394 Units=m
New Line.LINE415 Bus1=415 Bus2=416 phases=3 Linecode=4c_.5 Length=0.36425 Units=m
New Line.LINE416 Bus1=416 Bus2=417 phases=3 Linecode=4c_.5 Length=0.38952 Units=m
New Line.LINE417 Bus1=417 Bus2=418 phases=3 Linecode=4c_.5 Length=0.26627 Units=m
New Line.LINE418 Bus1=418 Bus2=419 phases=3 Linecode=4c_.5_SAC Length=3.0591 Units=m
New Line.LINE419 Bus1=419 Bus2=420 phases=3 Linecode=4c_.5_SAC Length=7.5995 Units=m
New Line.LINE420 Bus1=420 Bus2=421 phases=3 Linecode=4c_.5_SAC Length=3.1991 Units=m
New Line.LINE421 Bus1=421 Bus2=422 phases=3 Linecode=4c_.5_SAC Length=7.2892 Units=m
New Line.LINE422 Bus1=422 Bus2=423 phases=3 Linecode=4c_.5_SAC Length=2.1037 Units=m
New Line.LINE423 Bus1=423 Bus2=424 phases=3 Linecode=4c_.5_SAC Length=1.2492 Units=m
New Line.LINE424 Bus1=424 Bus2=425 phases=3 Linecode=4c_.5_SAC Length=0.056921 Units=m
New Line.LINE425 Bus1=425 Bus2=426 phases=3 Linecode=4c_.5_SAC Length=6.1158 Units=m
New Line.LINE426 Bus1=426 Bus2=427 phases=3 Linecode=4c_.5_SAC Length=1.5062 Units=m
New Line.LINE427 Bus1=427 Bus2=428 phases=3 Linecode=4c_.5_SAC Length=0.26983 Units=m
New Line.LINE428 Bus1=427 Bus2=429 phases=3 Linecode=4c_.5_SAC Length=2.8325 Units=m
New Line.LINE429 Bus1=428 Bus2=430 phases=3 Linecode=4c_.5_SAC Length=0.071308 Units=m
New Line.LINE430 Bus1=429 Bus2=431 phases=3 Linecode=4c_.5_SAC Length=1.9206 Units=m
New Line.LINE431 Bus1=430 Bus2=432 phases=3 Linecode=4c_.5_SAC Length=0.094032 Units=m
New Line.LINE432 Bus1=431 Bus2=433 phases=3 Linecode=4c_300_SAC Length=6.3564 Units=m
New Line.LINE433 Bus1=432 Bus2=434 phases=3 Linecode=4c_.5_SAC Length=0.14368 Units=m
New Line.LINE434 Bus1=433 Bus2=435 phases=3 Linecode=4c_300_SAC Length=2.9959 Units=m
New Line.LINE435 Bus1=434 Bus2=436 phases=3 Linecode=4c_.5_SAC Length=0.16064 Units=m
New Line.LINE436 Bus1=435 Bus2=437 phases=3 Linecode=4c_300_SAC Length=1.1527 Units=m
New Line.LINE437 Bus1=436 Bus2=438 phases=3 Linecode=4c_.5_SAC Length=0.22066 Units=m
New Line.LINE438 Bus1=437 Bus2=439 phases=3 Linecode=4c_300_SAC Length=0.38836 Units=m
New Line.LINE439 Bus1=438 Bus2=440 phases=3 Linecode=4c_.5_SAC Length=0.1683 Units=m
New Line.LINE440 Bus1=439 Bus2=441 phases=3 Linecode=4c_300_SAC Length=0.31234 Units=m
New Line.LINE441 Bus1=440 Bus2=442 phases=3 Linecode=4c_.5_SAC Length=0.12939 Units=m
New Line.LINE442 Bus1=441 Bus2=443 phases=3 Linecode=4c_300_SAC Length=0.36062 Units=m
New Line.LINE443 Bus1=442 Bus2=444 phases=3 Linecode=4c_.5_SAC Length=0.11439 Units=m
New Line.LINE444 Bus1=443 Bus2=445 phases=3 Linecode=4c_300_SAC Length=0.4414 Units=m
New Line.LINE445 Bus1=444 Bus2=446 phases=3 Linecode=4c_.5_SAC Length=0.14001 Units=m
New Line.LINE446 Bus1=445 Bus2=447 phases=3 Linecode=4c_300_SAC Length=1.6736 Units=m
New Line.LINE447 Bus1=447 Bus2=448 phases=3 Linecode=4c_300_SAC Length=3.0649 Units=m
New Line.LINE448 Bus1=448 Bus2=449 phases=3 Linecode=4c_300_SAC Length=3.1931 Units=m
New Line.LINE449 Bus1=449 Bus2=450 phases=3 Linecode=4c_300_SAC Length=0.10412 Units=m
